LAMMPS (15 Jun 2020)
## This script first uses fix qtb to equilibrate alpha quartz structure to an initial state with quantum nuclear correction and then simulate shock induced phase transition through the quantum thermal bath multi-scale shock technique
variable                x_rep equal 2   #plot is made with x_rep = 8                                            #x-direction replication number
variable                y_rep equal 1   #plot is made with y_rep = 5                                            #y-direction replication number
variable                z_rep equal 4   #plot is made with z_rep = 15                                           #z-direction replication number
variable                cut_off equal 10.0                                                                      #Cut-off distance for the Buckingham term (Angstrom in metal units)
variable                pressure equal 1.03125                                                                  #Initial state pressure (bar in metal units)
variable                temperature equal 300.0                                                                 #Initial state quantum temperature (K in metal units)
variable                delta_t equal 1.0e-3                                                                    #MD timestep length (ps in metal units)
variable                damp_qtb equal 1                                                                        #1/gamma where gamma is the friction coefficient in quantum thermal bath (ps in metal units)
variable                v_msst equal 78.0                                                                       #Shock velocity (Angstrom/ps in metal units)
variable                q_msst equal 40.0                                                                       #Box mass-like parameter in the MSST (mass^2/length^4, where mass=grams/mole and length=Angstrom in metal units)
variable                tscale_msst equal 0.05                                                                  #Temperature reduction parameter in the MSST (unitless)
variable                eta_qbmsst equal 1.0                                                                    #Coupling constant between the shock and the quantum thermal bath (unitless constant)

## This part uses fix qtb to prepare alpha-quartz with quantum nuclear correction of the initial state
include                 alpha_quartz_qtb.mod
## This script first constructs an alpha quartz structure of a given size. It then uses fix qtb to equilibrate the computational cell to the specified temperature and pressure.

## This part defines units, alpha-quartz crystal, and atomic information
#General
units                   metal
dimension               3
boundary                p p p
atom_style              charge

#Lattice
lattice                 custom 1.0                         a1      4.916000 0.000000 0.000000                         a2      -2.45800 4.257381 0.000000                         a3      0.000000 0.000000 5.405400                                                 basis   0.469700 0.000000 0.000000                         basis   0.000000 0.469700 0.666667                         basis   0.530300 0.530300 0.333333                                                 basis   0.413500 0.266900 0.119100                         basis   0.266900 0.413500 0.547567                         basis   0.733100 0.146600 0.785767                         basis   0.586500 0.853400 0.214233                         basis   0.853400 0.586500 0.452433                         basis   0.146600 0.733100 0.880900                                                      #American Mineralogist 65 920 1980 (Space Group 154)
Lattice spacing in x,y,z = 7.374 4.25738 5.4054

#Computational Cell
region                  orthorhombic_unit_cell block 0 4.916000 0 8.514762 0 5.405400 units box
create_box              2 orthorhombic_unit_cell
Created orthogonal box = (0.0 0.0 0.0) to (4.916 8.514762 5.4054)
create_atoms            1 box                         basis   1 1                         basis   2 1                         basis   3 1                         basis   4 2                         basis   5 2                         basis   6 2                         basis   7 2                         basis   8 2                         basis   9 2
Created 18 atoms
replicate               2 1 4
  orthogonal box = (0.0 0.0 0.0) to (9.832 8.514762 21.6216)
  144 atoms
  replicate CPU = 0.000271082 secs

#Atomic Information
mass                    1 28.085500
mass                    2 15.999400
set                     type 1 charge +2.4
  48 settings made for charge
set                     type 2 charge -1.2
  96 settings made for charge

## This part implements the BKS pair potential with a cut-off distance for the Buckingham term. Long range Coulomb interactions are evaluated with the pppm method.
include                 alpha_quartz_potential.mod
#This script implements the BKS pair potential for various silicon dioxide compounds. Inner part is fixed with a harmonic potential. Long range Coulomb interactions are evaluated with the pppm method.

#Pair Potentials
pair_style              hybrid/overlay buck/coul/long 10 table linear 39901
pair_coeff              1 1 buck/coul/long 0.0 1.0 0.0                                                          #No interactions between Si atoms
pair_coeff              1 2 buck/coul/long 18003.757200 0.205205 133.538100
pair_coeff              2 2 buck/coul/long 1388.773000  0.362319 175.000000                                     #BKS interaction in PRL 64 1955 (1990)
pair_modify             shift yes
pair_coeff              1 2 table potential_SiO2.TPF Si-O 10
pair_coeff              2 2 table potential_SiO2.TPF O-O 10
  Should only be flagged at inflection points (src/pair_table.cpp:471)
kspace_style            pppm 1.0e-4

#Neighbor style
neighbor                2.0 bin
neigh_modify            check yes every 1 delay 0 page 100000 one 2000

variable                p_damp equal 0.001*1000
fix                     scapegoat_qtb all nph iso 1.03125 1.03125 1 ptemp 300
fix                     quartz_qtb all qtb temp 300 damp 1 seed 35082 f_max 120.00 N_f 100
thermo_style            custom step temp press etotal vol lx ly lz pxx pyy pzz pxy pyz pxz
thermo                  200
run                     2000                                                                                    # 2 ps
PPPM initialization ...
  G vector (1/distance) = 0.301598
  grid = 9 8 15
  stencil order = 5
  estimated absolute RMS force accuracy = 0.00117056
  estimated relative force accuracy = 8.12908e-05
  3d grid and FFT values/proc = 5280 1080
  update every 1 steps, delay 0 steps, check yes
Step Temp Press TotEng Volume Lx Ly Lz Pxx Pyy Pzz Pxy Pyz Pxz
0            0   -34026.791   -2793.6042    1810.0985        9.832     8.514762      21.6216   -37470.578   -37470.432   -27139.363 -6.4345368e-12   0.94245783 4.2212262e-10
Averages over the last 6 of 11 rows, steps 1000 to 2000:
Temp Press TotEng Volume Lx Ly Lz Pxx Pyy Pzz Pxy Pyz Pxz
421.815 -4917.59 -2781.34 1868.64 9.93671 8.60544 21.8519 -5162.68 -6081.14 -3508.96 -774.079 -1316.91 -1640.14
Loop time of 2.46815 on 1 procs for 2000 steps with 144 atoms

unfix                   quartz_qtb
unfix                   scapegoat_qtb

## This part demonstrates how to retart fix qbmsst during any stage of the shock simulation.
## PPPM may break down when compression ratio becomes extremely large. One can always use this restart technique to resume the shock simulation.
#Compression restart 1
reset_timestep          0
#Beta is the number of time steps between each update of the quantum bath temperature. Setting a larger beta can reduce thermal flactuations.
fix                     shock all qbmsst z 78 q 40 tscale 0.05 damp 1 f_max 120 N_f 100 seed 35082 eta 1 beta 5 T_init 300
QBMSST parameters:
  Shock in z direction
  Cell mass-like parameter qmass (units of mass^2/length^4) =  4.00000e+01
  Shock velocity =  7.80000e+01
  Artificial viscosity (units of mass/length/time) =  0.00000e+00
  Initial pressure calculated on first step
  Initial volume calculated on first step
  Initial energy calculated on first step
fix_modify              shock energy yes
variable                dhug equal f_shock[1]
variable                dray equal f_shock[2]
variable                lgr_vel equal f_shock[3]
variable                lgr_pos equal f_shock[4]
variable                T_qm equal f_shock[5]                                                                   #Temperature with quantum nuclear correction
thermo_style            custom step v_T_qm press etotal vol lx ly lz pzz v_dhug v_dray v_lgr_vel v_lgr_pos
thermo                  200
timestep                0.001
run                     1000
PPPM initialization ...
  G vector (1/distance) = 0.303132
  grid = 9 8 16
  stencil order = 5
  estimated absolute RMS force accuracy = 0.00104699
  estimated relative force accuracy = 7.27093e-05
  3d grid and FFT values/proc = 5520 1152
  update every 1 steps, delay 0 steps, check yes
Fix QBMSST v0 =  1.87135e+03
Fix QBMSST p0 = -4.62948e+03
Fix QBMSST e0 = to be -2.78074e+03
Fix QBMSST initial strain rate of -4.01096e-01 established by reducing temperature by factor of  5.00000e-02
Step v_T_qm Press TotEng Volume Lx Ly Lz Pzz v_dhug v_dray v_lgr_vel v_lgr_pos
0          300   -6922.9433   -2780.7394    1871.3547    9.9416812    8.6097487    21.862801   -4819.9907    10.953265   -190.51273            0            0
Loop time of 2.05219 on 1 procs for 1000 steps with 144 atoms

write_restart           restart.1000
PPPM initialization ...
  G vector (1/distance) = 0.306435
  grid = 9 8 15
  stencil order = 5
  estimated absolute RMS force accuracy = 0.000955688
  estimated relative force accuracy = 6.63689e-05
  3d grid and FFT values/proc = 5280 1080
  update every 1 steps, delay 0 steps, check yes

#Compression restart 2
#Read restart file and load potential again
clear
read_restart            restart.1000
  restoring atom style charge from restart
  orthogonal box = (-0.05484062286382799 -0.04749337384227555 2.0916641327653274) to (9.886840622863804 8.562255373842252 19.52993586723476)
  restoring pair style hybrid/overlay from restart
  144 atoms
  read_restart CPU = 0.0002563 secs
include                 alpha_quartz_potential.mod
#This script implements the BKS pair potential for various silicon dioxide compounds. Inner part is fixed with a harmonic potential. Long range Coulomb interactions are evaluated with the pppm method.

#Pair Potentials
pair_style              hybrid/overlay buck/coul/long 10 table linear 39901
pair_coeff              1 1 buck/coul/long 0.0 1.0 0.0                                                          #No interactions between Si atoms
pair_coeff              1 2 buck/coul/long 18003.757200 0.205205 133.538100
pair_coeff              2 2 buck/coul/long 1388.773000  0.362319 175.000000                                     #BKS interaction in PRL 64 1955 (1990)
pair_modify             shift yes
pair_coeff              1 2 table potential_SiO2.TPF Si-O 10
pair_coeff              2 2 table potential_SiO2.TPF O-O 10
  Should only be flagged at inflection points (src/pair_table.cpp:471)
kspace_style            pppm 1.0e-4

#Neighbor style
neighbor                2.0 bin
neigh_modify            check yes every 1 delay 0 page 100000 one 2000
#Use the same fix id and add no tscale if the system is already compressed
fix                     shock all qbmsst z 78 q 40 tscale 0.0 damp 1 f_max 120 N_f 100 seed 35082 eta 1 beta 5 T_init 300
QBMSST parameters:
  Shock in z direction
  Cell mass-like parameter qmass (units of mass^2/length^4) =  4.00000e+01
  Shock velocity =  7.80000e+01
  Artificial viscosity (units of mass/length/time) =  0.00000e+00
  Initial pressure calculated on first step
  Initial volume calculated on first step
  Initial energy calculated on first step
  fix style: qbmsst, fix ID: shock
fix_modify              shock energy yes
variable                dhug equal f_shock[1]
variable                dray equal f_shock[2]
variable                lgr_vel equal f_shock[3]
variable                lgr_pos equal f_shock[4]
variable                T_qm equal f_shock[5]                                                                   #Temperature with quantum nuclear correction
thermo_style            custom step v_T_qm press etotal vol lx ly lz pzz v_dhug v_dray v_lgr_vel v_lgr_pos
thermo                  500
timestep                0.001
restart                 1000 restart
run                     10000                                                                                   #10 ps
PPPM initialization ...
  G vector (1/distance) = 0.306435
  grid = 9 8 15
  stencil order = 5
  estimated absolute RMS force accuracy = 0.000955688
  estimated relative force accuracy = 6.63689e-05
  3d grid and FFT values/proc = 5280 1080
All restart file global fix info was re-assigned
  update every 1 steps, delay 0 steps, check yes
Step v_T_qm Press TotEng Volume Lx Ly Lz Pzz v_dhug v_dray v_lgr_vel v_lgr_pos
1000    268.47106    189686.77   -2781.5194    1492.6355    9.9416812    8.6097487    17.438272    277378.37   -84.692548   -33090.129    15.785409            0
Averages over the last 11 of 21 rows, steps 6000 to 11000:
v_T_qm Press TotEng Volume Lx Ly Lz Pzz v_dhug v_dray v_lgr_vel v_lgr_pos
3352.86 675969 -2779.89 1021.37 9.94168 8.60975 11.9325 708454 23.4768 5885.45 35.4284 -318.779
Loop time of 32.4277 on 1 procs for 10000 steps with 144 atoms
